<?xml version="1.0" encoding="UTF-8"?>

<!-- generated on 05/11/19 18:45:03 by Eclipse SUMO netedit Version 1.2.0
<configuration xmlns:xsi="http://www.w3.org/2001/XMLSchema-instance" xsi:noNamespaceSchemaLocation="http://sumo.dlr.de/xsd/netconvertConfiguration.xsd">

    <input>
        <sumo-net-file value="C:\Users\Lenovo\Documents\pdfler\okul\BAHAR%20-%202019\Vehicular%20Networks\proje\sumo-tests\traci_tls\data\cross.net.xml"/>
    </input>

    <output>
        <output-file value="C:\Users\Lenovo\Documents\pdfler\okul\BAHAR%20-%202019\Vehicular%20Networks\proje\sumo-tests\traci_tls\data\cross.net.xml"/>
    </output>

    <processing>
        <geometry.max-grade.fix value="false"/>
        <offset.disable-normalization value="true"/>
        <lefthand value="false"/>
    </processing>

    <junctions>
        <no-turnarounds value="true"/>
        <junctions.corner-detail value="0"/>
        <junctions.limit-turn-speed value="-1"/>
        <rectangular-lane-cut value="false"/>
    </junctions>

    <pedestrian>
        <walkingareas value="false"/>
    </pedestrian>

</configuration>
-->

<net version="1.1" xmlns:xsi="http://www.w3.org/2001/XMLSchema-instance" xsi:noNamespaceSchemaLocation="http://sumo.dlr.de/xsd/net_file.xsd">

    <location netOffset="510.00,510.00" convBoundary="0.00,0.00,1020.00,1020.00" origBoundary="-510.00,-510.00,510.00,510.00" projParameter="!"/>

    <edge id=":0_0" function="internal">
        <lane id=":0_0_0" index="0" speed="15.28" length="9.03" shape="508.40,523.60 508.05,521.15 507.00,519.40 505.25,518.35 502.80,518.00"/>
    </edge>
    <edge id=":0_1" function="internal">
        <lane id=":0_1_0" index="0" speed="15.28" length="27.20" shape="508.40,523.60 508.40,496.40"/>
    </edge>
    <edge id=":0_2" function="internal">
        <lane id=":0_2_0" index="0" speed="15.28" length="9.87" shape="508.40,523.60 508.95,516.95 510.00,513.93"/>
    </edge>
    <edge id=":0_16" function="internal">
        <lane id=":0_16_0" index="0" speed="15.28" length="9.75" shape="510.00,513.93 510.60,512.20 513.35,509.35 517.20,508.40"/>
    </edge>
    <edge id=":0_3" function="internal">
        <lane id=":0_3_0" index="0" speed="15.28" length="9.03" shape="517.20,518.00 514.75,518.35 513.00,519.40 511.95,521.15 511.60,523.60"/>
    </edge>
    <edge id=":0_4" function="internal">
        <lane id=":0_4_0" index="0" speed="15.28" length="14.40" shape="517.20,518.00 502.80,518.00"/>
        <lane id=":0_4_1" index="1" speed="15.28" length="14.40" shape="517.20,514.80 502.80,514.80"/>
        <lane id=":0_4_2" index="2" speed="15.28" length="14.40" shape="517.20,511.60 502.80,511.60"/>
    </edge>
    <edge id=":0_7" function="internal">
        <lane id=":0_7_0" index="0" speed="15.28" length="4.87" shape="517.20,511.60 513.35,510.65 512.72,510.00"/>
    </edge>
    <edge id=":0_17" function="internal">
        <lane id=":0_17_0" index="0" speed="15.28" length="14.76" shape="512.72,510.00 510.60,507.80 508.95,503.05 508.40,496.40"/>
    </edge>
    <edge id=":0_8" function="internal">
        <lane id=":0_8_0" index="0" speed="15.28" length="9.03" shape="511.60,496.40 511.95,498.85 513.00,500.60 514.75,501.65 517.20,502.00"/>
    </edge>
    <edge id=":0_9" function="internal">
        <lane id=":0_9_0" index="0" speed="15.28" length="27.20" shape="511.60,496.40 511.60,523.60"/>
    </edge>
    <edge id=":0_10" function="internal">
        <lane id=":0_10_0" index="0" speed="15.28" length="9.87" shape="511.60,496.40 511.05,503.05 510.00,506.07"/>
    </edge>
    <edge id=":0_18" function="internal">
        <lane id=":0_18_0" index="0" speed="15.28" length="9.75" shape="510.00,506.07 509.40,507.80 506.65,510.65 502.80,511.60"/>
    </edge>
    <edge id=":0_11" function="internal">
        <lane id=":0_11_0" index="0" speed="15.28" length="9.03" shape="502.80,502.00 505.25,501.65 507.00,500.60 508.05,498.85 508.40,496.40"/>
    </edge>
    <edge id=":0_12" function="internal">
        <lane id=":0_12_0" index="0" speed="15.28" length="14.40" shape="502.80,502.00 517.20,502.00"/>
        <lane id=":0_12_1" index="1" speed="15.28" length="14.40" shape="502.80,505.20 517.20,505.20"/>
        <lane id=":0_12_2" index="2" speed="15.28" length="14.40" shape="502.80,508.40 517.20,508.40"/>
    </edge>
    <edge id=":0_15" function="internal">
        <lane id=":0_15_0" index="0" speed="15.28" length="4.87" shape="502.80,508.40 506.65,509.35 507.28,510.00"/>
    </edge>
    <edge id=":0_19" function="internal">
        <lane id=":0_19_0" index="0" speed="15.28" length="14.76" shape="507.28,510.00 509.40,512.20 511.05,516.95 511.60,523.60"/>
    </edge>
    <edge id=":1_0" function="internal">
        <lane id=":1_0_0" index="0" speed="15.28" length="10.85" shape="14.00,518.00 11.29,517.00 9.95,514.80 8.64,512.60 6.00,511.60"/>
    </edge>
    <edge id=":1_1" function="internal">
        <lane id=":1_1_0" index="0" speed="15.28" length="2.34" shape="14.00,511.60 12.80,510.80 12.40,510.00"/>
    </edge>
    <edge id=":1_6" function="internal">
        <lane id=":1_6_0" index="0" speed="15.28" length="2.34" shape="12.40,510.00 12.80,509.20 14.00,508.40"/>
    </edge>
    <edge id=":1_2" function="internal">
        <lane id=":1_2_0" index="0" speed="15.28" length="9.22" shape="6.00,508.40 8.64,507.40 9.95,505.20 11.29,503.00 14.00,502.00"/>
        <lane id=":1_2_1" index="1" speed="15.28" length="9.22" shape="6.00,508.40 8.46,507.90 10.00,506.80 11.54,505.70 14.00,505.20"/>
        <lane id=":1_2_2" index="2" speed="15.28" length="9.22" shape="6.00,508.40 14.00,508.40"/>
    </edge>
    <edge id=":1_5" function="internal">
        <lane id=":1_5_0" index="0" speed="15.28" length="2.80" shape="6.00,508.40 7.20,509.20 7.60,510.00 7.39,510.42"/>
    </edge>
    <edge id=":1_7" function="internal">
        <lane id=":1_7_0" index="0" speed="15.28" length="1.87" shape="7.39,510.42 7.20,510.80 6.00,511.60"/>
    </edge>
    <edge id=":2_0" function="internal">
        <lane id=":2_0_0" index="0" speed="15.28" length="9.22" shape="1014.00,511.60 1011.36,512.60 1010.05,514.80 1008.71,517.00 1006.00,518.00"/>
        <lane id=":2_0_1" index="1" speed="15.28" length="9.22" shape="1014.00,511.60 1011.54,512.10 1010.00,513.20 1008.46,514.30 1006.00,514.80"/>
        <lane id=":2_0_2" index="2" speed="15.28" length="9.22" shape="1014.00,511.60 1006.00,511.60"/>
    </edge>
    <edge id=":2_3" function="internal">
        <lane id=":2_3_0" index="0" speed="15.28" length="2.80" shape="1014.00,511.60 1012.80,510.80 1012.40,510.00 1012.61,509.58"/>
    </edge>
    <edge id=":2_6" function="internal">
        <lane id=":2_6_0" index="0" speed="15.28" length="1.87" shape="1012.61,509.58 1012.80,509.20 1014.00,508.40"/>
    </edge>
    <edge id=":2_4" function="internal">
        <lane id=":2_4_0" index="0" speed="15.28" length="10.85" shape="1006.00,502.00 1008.71,503.00 1010.05,505.20 1011.36,507.40 1014.00,508.40"/>
    </edge>
    <edge id=":2_5" function="internal">
        <lane id=":2_5_0" index="0" speed="15.28" length="2.34" shape="1006.00,508.40 1007.20,509.20 1007.60,510.00"/>
    </edge>
    <edge id=":2_7" function="internal">
        <lane id=":2_7_0" index="0" speed="15.28" length="2.34" shape="1007.60,510.00 1007.20,510.80 1006.00,511.60"/>
    </edge>
    <edge id=":3_0" function="internal">
        <lane id=":3_0_0" index="0" speed="15.28" length="0.10" shape="508.40,10.00 508.40,10.00"/>
    </edge>
    <edge id=":3_1" function="internal">
        <lane id=":3_1_0" index="0" speed="15.28" length="2.34" shape="508.40,10.00 509.20,8.80 510.00,8.40"/>
    </edge>
    <edge id=":3_4" function="internal">
        <lane id=":3_4_0" index="0" speed="15.28" length="2.34" shape="510.00,8.40 510.80,8.80 511.60,10.00"/>
    </edge>
    <edge id=":3_2" function="internal">
        <lane id=":3_2_0" index="0" speed="15.28" length="0.10" shape="511.60,10.00 511.60,10.00"/>
    </edge>
    <edge id=":3_3" function="internal">
        <lane id=":3_3_0" index="0" speed="15.28" length="2.34" shape="511.60,10.00 510.80,11.20 510.00,11.60"/>
    </edge>
    <edge id=":3_5" function="internal">
        <lane id=":3_5_0" index="0" speed="15.28" length="2.34" shape="510.00,11.60 509.20,11.20 508.40,10.00"/>
    </edge>
    <edge id=":4_0" function="internal">
        <lane id=":4_0_0" index="0" speed="15.28" length="0.10" shape="508.40,1010.00 508.40,1010.00"/>
    </edge>
    <edge id=":4_1" function="internal">
        <lane id=":4_1_0" index="0" speed="15.28" length="2.34" shape="508.40,1010.00 509.20,1008.80 510.00,1008.40"/>
    </edge>
    <edge id=":4_4" function="internal">
        <lane id=":4_4_0" index="0" speed="15.28" length="2.34" shape="510.00,1008.40 510.80,1008.80 511.60,1010.00"/>
    </edge>
    <edge id=":4_2" function="internal">
        <lane id=":4_2_0" index="0" speed="15.28" length="0.10" shape="511.60,1010.00 511.60,1010.00"/>
    </edge>
    <edge id=":4_3" function="internal">
        <lane id=":4_3_0" index="0" speed="15.28" length="2.34" shape="511.60,1010.00 510.80,1011.20 510.00,1011.60"/>
    </edge>
    <edge id=":4_5" function="internal">
        <lane id=":4_5_0" index="0" speed="15.28" length="2.34" shape="510.00,1011.60 509.20,1011.20 508.40,1010.00"/>
    </edge>
    <edge id=":51_0" function="internal">
        <lane id=":51_0_0" index="0" speed="15.28" length="4.67" shape="0.00,511.60 -1.20,510.80 -1.60,510.00 -1.20,509.20 0.00,508.40"/>
    </edge>
    <edge id=":52_0" function="internal">
        <lane id=":52_0_0" index="0" speed="15.28" length="4.67" shape="1020.00,508.40 1021.20,509.20 1021.60,510.00 1021.20,510.80 1020.00,511.60"/>
    </edge>
    <edge id=":53_0" function="internal">
        <lane id=":53_0_0" index="0" speed="15.28" length="4.67" shape="508.40,0.00 509.20,-1.20 510.00,-1.60 510.80,-1.20 511.60,0.00"/>
    </edge>
    <edge id=":54_0" function="internal">
        <lane id=":54_0_0" index="0" speed="15.28" length="4.67" shape="511.60,1020.00 510.80,1021.20 510.00,1021.60 509.20,1021.20 508.40,1020.00"/>
    </edge>

    <edge id="1i" from="1" to="0" priority="78">
        <lane id="1i_0" index="0" speed="19.44" length="488.80" shape="14.00,502.00 502.80,502.00"/>
        <lane id="1i_1" index="1" speed="19.44" length="488.80" shape="14.00,505.20 502.80,505.20"/>
        <lane id="1i_2" index="2" speed="19.44" length="488.80" shape="14.00,508.40 502.80,508.40"/>
    </edge>
    <edge id="1o" from="0" to="1" priority="46">
        <lane id="1o_0" index="0" speed="11.11" length="488.80" shape="502.80,518.00 14.00,518.00"/>
        <lane id="1o_1" index="1" speed="11.11" length="488.80" shape="502.80,514.80 14.00,514.80"/>
        <lane id="1o_2" index="2" speed="11.11" length="488.80" shape="502.80,511.60 14.00,511.60"/>
    </edge>
    <edge id="2i" from="2" to="0" priority="78">
        <lane id="2i_0" index="0" speed="19.44" length="488.80" shape="1006.00,518.00 517.20,518.00"/>
        <lane id="2i_1" index="1" speed="19.44" length="488.80" shape="1006.00,514.80 517.20,514.80"/>
        <lane id="2i_2" index="2" speed="19.44" length="488.80" shape="1006.00,511.60 517.20,511.60"/>
    </edge>
    <edge id="2o" from="0" to="2" priority="46">
        <lane id="2o_0" index="0" speed="11.11" length="488.80" shape="517.20,502.00 1006.00,502.00"/>
        <lane id="2o_1" index="1" speed="11.11" length="488.80" shape="517.20,505.20 1006.00,505.20"/>
        <lane id="2o_2" index="2" speed="11.11" length="488.80" shape="517.20,508.40 1006.00,508.40"/>
    </edge>
    <edge id="3i" from="3" to="0" priority="78">
        <lane id="3i_0" index="0" speed="19.44" length="486.40" shape="511.60,10.00 511.60,496.40"/>
    </edge>
    <edge id="3o" from="0" to="3" priority="46">
        <lane id="3o_0" index="0" speed="11.11" length="486.40" shape="508.40,496.40 508.40,10.00"/>
    </edge>
    <edge id="4i" from="4" to="0" priority="78">
        <lane id="4i_0" index="0" speed="19.44" length="486.40" shape="508.40,1010.00 508.40,523.60"/>
    </edge>
    <edge id="4o" from="0" to="4" priority="46">
        <lane id="4o_0" index="0" speed="11.11" length="486.40" shape="511.60,523.60 511.60,1010.00"/>
    </edge>
    <edge id="51i" from="1" to="51" priority="78">
        <lane id="51i_0" index="0" speed="19.44" length="6.00" shape="6.00,511.60 0.00,511.60"/>
    </edge>
    <edge id="51o" from="51" to="1" priority="46">
        <lane id="51o_0" index="0" speed="11.11" length="6.00" shape="0.00,508.40 6.00,508.40"/>
    </edge>
    <edge id="52i" from="2" to="52" priority="78">
        <lane id="52i_0" index="0" speed="19.44" length="6.00" shape="1014.00,508.40 1020.00,508.40"/>
    </edge>
    <edge id="52o" from="52" to="2" priority="46">
        <lane id="52o_0" index="0" speed="11.11" length="6.00" shape="1020.00,511.60 1014.00,511.60"/>
    </edge>
    <edge id="53i" from="3" to="53" priority="78">
        <lane id="53i_0" index="0" speed="19.44" length="10.00" shape="508.40,10.00 508.40,0.00"/>
    </edge>
    <edge id="53o" from="53" to="3" priority="46">
        <lane id="53o_0" index="0" speed="11.11" length="10.00" shape="511.60,0.00 511.60,10.00"/>
    </edge>
    <edge id="54i" from="4" to="54" priority="78">
        <lane id="54i_0" index="0" speed="19.44" length="10.00" shape="511.60,1010.00 511.60,1020.00"/>
    </edge>
    <edge id="54o" from="54" to="4" priority="46">
        <lane id="54o_0" index="0" speed="11.11" length="10.00" shape="508.40,1020.00 508.40,1010.00"/>
    </edge>

    <tlLogic id="0" type="static" programID="0" offset="0">
        <phase duration="40" state="rrrGGGGgrrrGGGGg"/>
        <phase duration="5"  state="rrryyyyyrrryyyyy"/>
        <phase duration="40" state="GGgrrrrrGGgrrrrr"/>
        <phase duration="5"  state="yyyrrrrryyyrrrrr"/>
    </tlLogic>

    <junction id="0" type="traffic_light" x="510.00" y="510.00" incLanes="4i_0 2i_0 2i_1 2i_2 3i_0 1i_0 1i_1 1i_2" intLanes=":0_0_0 :0_1_0 :0_16_0 :0_3_0 :0_4_0 :0_4_1 :0_4_2 :0_17_0 :0_8_0 :0_9_0 :0_18_0 :0_11_0 :0_12_0 :0_12_1 :0_12_2 :0_19_0" shape="506.80,523.60 513.20,523.60 517.20,519.60 517.20,500.40 513.20,496.40 506.80,496.40 502.80,500.40 502.80,519.60">
        <request index="0"  response="0000000001110000" foes="0000000001110000" cont="0"/>
        <request index="1"  response="1111100011110000" foes="1111110011110000" cont="0"/>
        <request index="2"  response="1111001011110000" foes="1111001011110000" cont="1"/>
        <request index="3"  response="0000000000000000" foes="1000001000000000" cont="0"/>
        <request index="4"  response="0000010000000100" foes="1000011000000111" cont="0"/>
        <request index="5"  response="0000010000000100" foes="1000011000000111" cont="0"/>
        <request index="6"  response="0000010000000100" foes="1000011000000111" cont="0"/>
        <request index="7"  response="0111110000000100" foes="0111111000000110" cont="1"/>
        <request index="8"  response="0111000000000000" foes="0111000000000000" cont="0"/>
        <request index="9"  response="1111000011111000" foes="1111000011111100" cont="0"/>
        <request index="10" response="1111000011110010" foes="1111000011110010" cont="1"/>
        <request index="11" response="0000000000000000" foes="0000000010000010" cont="0"/>
        <request index="12" response="0000010000000100" foes="0000011110000110" cont="0"/>
        <request index="13" response="0000010000000100" foes="0000011110000110" cont="0"/>
        <request index="14" response="0000010000000100" foes="0000011110000110" cont="0"/>
        <request index="15" response="0000010001111100" foes="0000011001111110" cont="1"/>
    </junction>
    <junction id="1" type="priority" x="10.00" y="510.00" incLanes="1o_0 1o_1 1o_2 51o_0" intLanes=":1_0_0 :1_6_0 :1_2_0 :1_2_1 :1_2_2 :1_7_0" shape="14.00,519.60 14.00,500.40 6.00,506.80 6.00,513.20">
        <request index="0" response="000000" foes="100000" cont="0"/>
        <request index="1" response="011100" foes="011100" cont="1"/>
        <request index="2" response="000000" foes="000010" cont="0"/>
        <request index="3" response="000000" foes="000010" cont="0"/>
        <request index="4" response="000000" foes="000010" cont="0"/>
        <request index="5" response="000001" foes="000001" cont="1"/>
    </junction>
    <junction id="2" type="priority" x="1010.00" y="510.00" incLanes="52o_0 2o_0 2o_1 2o_2" intLanes=":2_0_0 :2_0_1 :2_0_2 :2_6_0 :2_4_0 :2_7_0" shape="1014.00,513.20 1014.00,506.80 1006.00,500.40 1006.00,519.60">
        <request index="0" response="000000" foes="100000" cont="0"/>
        <request index="1" response="000000" foes="100000" cont="0"/>
        <request index="2" response="000000" foes="100000" cont="0"/>
        <request index="3" response="010000" foes="010000" cont="1"/>
        <request index="4" response="000000" foes="001000" cont="0"/>
        <request index="5" response="000111" foes="000111" cont="1"/>
    </junction>
    <junction id="3" type="priority" x="510.00" y="10.00" incLanes="3o_0 53o_0" intLanes=":3_0_0 :3_4_0 :3_2_0 :3_5_0" shape="506.80,10.00 513.20,10.00 506.80,10.00">
        <request index="0" response="0000" foes="1000" cont="0"/>
        <request index="1" response="0100" foes="0100" cont="1"/>
        <request index="2" response="0000" foes="0010" cont="0"/>
        <request index="3" response="0001" foes="0001" cont="1"/>
    </junction>
    <junction id="4" type="priority" x="510.00" y="1010.00" incLanes="54o_0 4o_0" intLanes=":4_0_0 :4_4_0 :4_2_0 :4_5_0" shape="506.80,1010.00 513.20,1010.00 506.80,1010.00">
        <request index="0" response="0000" foes="1000" cont="0"/>
        <request index="1" response="0100" foes="0100" cont="1"/>
        <request index="2" response="0000" foes="0010" cont="0"/>
        <request index="3" response="0001" foes="0001" cont="1"/>
    </junction>
    <junction id="51" type="priority" x="0.00" y="510.00" incLanes="51i_0" intLanes=":51_0_0" shape="0.00,510.00 0.00,513.20 0.00,510.00">
        <request index="0" response="0" foes="0" cont="0"/>
    </junction>
    <junction id="52" type="priority" x="1020.00" y="510.00" incLanes="52i_0" intLanes=":52_0_0" shape="1020.00,510.00 1020.00,506.80 1020.00,510.00">
        <request index="0" response="0" foes="0" cont="0"/>
    </junction>
    <junction id="53" type="priority" x="510.00" y="0.00" incLanes="53i_0" intLanes=":53_0_0" shape="510.00,0.00 506.80,0.00 510.00,0.00">
        <request index="0" response="0" foes="0" cont="0"/>
    </junction>
    <junction id="54" type="priority" x="510.00" y="1020.00" incLanes="54i_0" intLanes=":54_0_0" shape="510.00,1020.00 513.20,1020.00 510.00,1020.00">
        <request index="0" response="0" foes="0" cont="0"/>
    </junction>

    <junction id=":0_16_0" type="internal" x="510.00" y="513.93" incLanes=":0_2_0 3i_0" intLanes=":0_4_0 :0_4_1 :0_4_2 :0_7_0 :0_8_0 :0_9_0 :0_12_0 :0_12_1 :0_12_2 :0_15_0"/>
    <junction id=":0_17_0" type="internal" x="512.72" y="510.00" incLanes=":0_7_0 1i_0 1i_1 1i_2" intLanes=":0_1_0 :0_2_0 :0_9_0 :0_10_0 :0_11_0 :0_12_0 :0_12_1 :0_12_2"/>
    <junction id=":0_18_0" type="internal" x="510.00" y="506.07" incLanes=":0_10_0 4i_0" intLanes=":0_0_0 :0_1_0 :0_4_0 :0_4_1 :0_4_2 :0_7_0 :0_12_0 :0_12_1 :0_12_2 :0_15_0"/>
    <junction id=":0_19_0" type="internal" x="507.28" y="510.00" incLanes=":0_15_0 2i_0 2i_1 2i_2" intLanes=":0_1_0 :0_2_0 :0_3_0 :0_4_0 :0_4_1 :0_4_2 :0_9_0 :0_10_0"/>
    <junction id=":1_6_0" type="internal" x="12.40" y="510.00" incLanes=":1_1_0 51o_0" intLanes=":1_2_0 :1_2_1 :1_2_2"/>
    <junction id=":1_7_0" type="internal" x="7.39" y="510.42" incLanes=":1_5_0 1o_0" intLanes=":1_0_0"/>
    <junction id=":2_6_0" type="internal" x="1012.61" y="509.58" incLanes=":2_3_0 2o_0" intLanes=":2_4_0"/>
    <junction id=":2_7_0" type="internal" x="1007.60" y="510.00" incLanes=":2_5_0 52o_0" intLanes=":2_0_0 :2_0_1 :2_0_2"/>
    <junction id=":3_4_0" type="internal" x="510.00" y="8.40" incLanes=":3_1_0 53o_0" intLanes=":3_2_0"/>
    <junction id=":3_5_0" type="internal" x="510.00" y="11.60" incLanes=":3_3_0 3o_0" intLanes=":3_0_0"/>
    <junction id=":4_4_0" type="internal" x="510.00" y="1008.40" incLanes=":4_1_0 4o_0" intLanes=":4_2_0"/>
    <junction id=":4_5_0" type="internal" x="510.00" y="1011.60" incLanes=":4_3_0 54o_0" intLanes=":4_0_0"/>

    <connection from="1i" to="3o" fromLane="0" toLane="0" via=":0_11_0" tl="0" linkIndex="11" dir="r" state="O"/>
    <connection from="1i" to="2o" fromLane="0" toLane="0" via=":0_12_0" tl="0" linkIndex="12" dir="s" state="O"/>
    <connection from="1i" to="2o" fromLane="1" toLane="1" via=":0_12_1" tl="0" linkIndex="13" dir="s" state="O"/>
    <connection from="1i" to="2o" fromLane="2" toLane="2" via=":0_12_2" tl="0" linkIndex="14" dir="s" state="O"/>
    <connection from="1i" to="4o" fromLane="2" toLane="0" via=":0_15_0" tl="0" linkIndex="15" dir="l" state="o"/>
    <connection from="1o" to="51i" fromLane="0" toLane="0" via=":1_0_0" dir="s" state="M"/>
    <connection from="1o" to="1i" fromLane="2" toLane="2" via=":1_1_0" dir="t" state="m"/>
    <connection from="2i" to="4o" fromLane="0" toLane="0" via=":0_3_0" tl="0" linkIndex="3" dir="r" state="O"/>
    <connection from="2i" to="1o" fromLane="0" toLane="0" via=":0_4_0" tl="0" linkIndex="4" dir="s" state="O"/>
    <connection from="2i" to="1o" fromLane="1" toLane="1" via=":0_4_1" tl="0" linkIndex="5" dir="s" state="O"/>
    <connection from="2i" to="1o" fromLane="2" toLane="2" via=":0_4_2" tl="0" linkIndex="6" dir="s" state="O"/>
    <connection from="2i" to="3o" fromLane="2" toLane="0" via=":0_7_0" tl="0" linkIndex="7" dir="l" state="o"/>
    <connection from="2o" to="52i" fromLane="0" toLane="0" via=":2_4_0" dir="s" state="M"/>
    <connection from="2o" to="2i" fromLane="2" toLane="2" via=":2_5_0" dir="t" state="m"/>
    <connection from="3i" to="2o" fromLane="0" toLane="0" via=":0_8_0" tl="0" linkIndex="8" dir="r" state="o"/>
    <connection from="3i" to="4o" fromLane="0" toLane="0" via=":0_9_0" tl="0" linkIndex="9" dir="s" state="o"/>
    <connection from="3i" to="1o" fromLane="0" toLane="2" via=":0_10_0" tl="0" linkIndex="10" dir="l" state="o"/>
    <connection from="3o" to="53i" fromLane="0" toLane="0" via=":3_0_0" dir="s" state="M"/>
    <connection from="3o" to="3i" fromLane="0" toLane="0" via=":3_1_0" dir="t" state="m"/>
    <connection from="4i" to="1o" fromLane="0" toLane="0" via=":0_0_0" tl="0" linkIndex="0" dir="r" state="o"/>
    <connection from="4i" to="3o" fromLane="0" toLane="0" via=":0_1_0" tl="0" linkIndex="1" dir="s" state="o"/>
    <connection from="4i" to="2o" fromLane="0" toLane="2" via=":0_2_0" tl="0" linkIndex="2" dir="l" state="o"/>
    <connection from="4o" to="54i" fromLane="0" toLane="0" via=":4_2_0" dir="s" state="M"/>
    <connection from="4o" to="4i" fromLane="0" toLane="0" via=":4_3_0" dir="t" state="m"/>
    <connection from="51i" to="51o" fromLane="0" toLane="0" via=":51_0_0" dir="t" state="M"/>
    <connection from="51o" to="1i" fromLane="0" toLane="0" via=":1_2_0" dir="s" state="M"/>
    <connection from="51o" to="1i" fromLane="0" toLane="1" via=":1_2_1" dir="s" state="M"/>
    <connection from="51o" to="1i" fromLane="0" toLane="2" via=":1_2_2" dir="s" state="M"/>
    <connection from="51o" to="51i" fromLane="0" toLane="0" via=":1_5_0" dir="t" state="m"/>
    <connection from="52i" to="52o" fromLane="0" toLane="0" via=":52_0_0" dir="t" state="M"/>
    <connection from="52o" to="2i" fromLane="0" toLane="0" via=":2_0_0" dir="s" state="M"/>
    <connection from="52o" to="2i" fromLane="0" toLane="1" via=":2_0_1" dir="s" state="M"/>
    <connection from="52o" to="2i" fromLane="0" toLane="2" via=":2_0_2" dir="s" state="M"/>
    <connection from="52o" to="52i" fromLane="0" toLane="0" via=":2_3_0" dir="t" state="m"/>
    <connection from="53i" to="53o" fromLane="0" toLane="0" via=":53_0_0" dir="t" state="M"/>
    <connection from="53o" to="3i" fromLane="0" toLane="0" via=":3_2_0" dir="s" state="M"/>
    <connection from="53o" to="53i" fromLane="0" toLane="0" via=":3_3_0" dir="t" state="m"/>
    <connection from="54i" to="54o" fromLane="0" toLane="0" via=":54_0_0" dir="t" state="M"/>
    <connection from="54o" to="4i" fromLane="0" toLane="0" via=":4_0_0" dir="s" state="M"/>
    <connection from="54o" to="54i" fromLane="0" toLane="0" via=":4_1_0" dir="t" state="m"/>

    <connection from=":0_0" to="1o" fromLane="0" toLane="0" dir="r" state="M"/>
    <connection from=":0_1" to="3o" fromLane="0" toLane="0" dir="s" state="M"/>
    <connection from=":0_2" to="2o" fromLane="0" toLane="2" via=":0_16_0" dir="l" state="m"/>
    <connection from=":0_16" to="2o" fromLane="0" toLane="2" dir="l" state="M"/>
    <connection from=":0_3" to="4o" fromLane="0" toLane="0" dir="r" state="M"/>
    <connection from=":0_4" to="1o" fromLane="0" toLane="0" dir="s" state="M"/>
    <connection from=":0_4" to="1o" fromLane="1" toLane="1" dir="s" state="M"/>
    <connection from=":0_4" to="1o" fromLane="2" toLane="2" dir="s" state="M"/>
    <connection from=":0_7" to="3o" fromLane="0" toLane="0" via=":0_17_0" dir="l" state="m"/>
    <connection from=":0_17" to="3o" fromLane="0" toLane="0" dir="l" state="M"/>
    <connection from=":0_8" to="2o" fromLane="0" toLane="0" dir="r" state="M"/>
    <connection from=":0_9" to="4o" fromLane="0" toLane="0" dir="s" state="M"/>
    <connection from=":0_10" to="1o" fromLane="0" toLane="2" via=":0_18_0" dir="l" state="m"/>
    <connection from=":0_18" to="1o" fromLane="0" toLane="2" dir="l" state="M"/>
    <connection from=":0_11" to="3o" fromLane="0" toLane="0" dir="r" state="M"/>
    <connection from=":0_12" to="2o" fromLane="0" toLane="0" dir="s" state="M"/>
    <connection from=":0_12" to="2o" fromLane="1" toLane="1" dir="s" state="M"/>
    <connection from=":0_12" to="2o" fromLane="2" toLane="2" dir="s" state="M"/>
    <connection from=":0_15" to="4o" fromLane="0" toLane="0" via=":0_19_0" dir="l" state="m"/>
    <connection from=":0_19" to="4o" fromLane="0" toLane="0" dir="l" state="M"/>
    <connection from=":1_0" to="51i" fromLane="0" toLane="0" dir="s" state="M"/>
    <connection from=":1_1" to="1i" fromLane="0" toLane="2" via=":1_6_0" dir="t" state="m"/>
    <connection from=":1_6" to="1i" fromLane="0" toLane="2" dir="t" state="M"/>
    <connection from=":1_2" to="1i" fromLane="0" toLane="0" dir="s" state="M"/>
    <connection from=":1_2" to="1i" fromLane="1" toLane="1" dir="s" state="M"/>
    <connection from=":1_2" to="1i" fromLane="2" toLane="2" dir="s" state="M"/>
    <connection from=":1_5" to="51i" fromLane="0" toLane="0" via=":1_7_0" dir="t" state="m"/>
    <connection from=":1_7" to="51i" fromLane="0" toLane="0" dir="t" state="M"/>
    <connection from=":2_0" to="2i" fromLane="0" toLane="0" dir="s" state="M"/>
    <connection from=":2_0" to="2i" fromLane="1" toLane="1" dir="s" state="M"/>
    <connection from=":2_0" to="2i" fromLane="2" toLane="2" dir="s" state="M"/>
    <connection from=":2_3" to="52i" fromLane="0" toLane="0" via=":2_6_0" dir="t" state="m"/>
    <connection from=":2_6" to="52i" fromLane="0" toLane="0" dir="t" state="M"/>
    <connection from=":2_4" to="52i" fromLane="0" toLane="0" dir="s" state="M"/>
    <connection from=":2_5" to="2i" fromLane="0" toLane="2" via=":2_7_0" dir="t" state="m"/>
    <connection from=":2_7" to="2i" fromLane="0" toLane="2" dir="t" state="M"/>
    <connection from=":3_0" to="53i" fromLane="0" toLane="0" dir="s" state="M"/>
    <connection from=":3_1" to="3i" fromLane="0" toLane="0" via=":3_4_0" dir="t" state="m"/>
    <connection from=":3_4" to="3i" fromLane="0" toLane="0" dir="t" state="M"/>
    <connection from=":3_2" to="3i" fromLane="0" toLane="0" dir="s" state="M"/>
    <connection from=":3_3" to="53i" fromLane="0" toLane="0" via=":3_5_0" dir="t" state="m"/>
    <connection from=":3_5" to="53i" fromLane="0" toLane="0" dir="t" state="M"/>
    <connection from=":4_0" to="4i" fromLane="0" toLane="0" dir="s" state="M"/>
    <connection from=":4_1" to="54i" fromLane="0" toLane="0" via=":4_4_0" dir="t" state="m"/>
    <connection from=":4_4" to="54i" fromLane="0" toLane="0" dir="t" state="M"/>
    <connection from=":4_2" to="54i" fromLane="0" toLane="0" dir="s" state="M"/>
    <connection from=":4_3" to="4i" fromLane="0" toLane="0" via=":4_5_0" dir="t" state="m"/>
    <connection from=":4_5" to="4i" fromLane="0" toLane="0" dir="t" state="M"/>
    <connection from=":51_0" to="51o" fromLane="0" toLane="0" dir="t" state="M"/>
    <connection from=":52_0" to="52o" fromLane="0" toLane="0" dir="t" state="M"/>
    <connection from=":53_0" to="53o" fromLane="0" toLane="0" dir="t" state="M"/>
    <connection from=":54_0" to="54o" fromLane="0" toLane="0" dir="t" state="M"/>

</net>
